MODPATH_PATHLINE_FILE         7         2
    1   0.0000000000E+00  0.0000000000E+00  0.0000000000E+00  0.0000000000E+00
END HEADER
         1         1         1        79
       525  0.24500000E+03  0.69500000E+03 -0.10500000E+03  0.00000000E+00  0.50000000E+00  0.50000000E+00  0.50000000E+00         1         1         1
       525  0.24504610E+03  0.69369444E+03 -0.10500000E+03  0.10000528E+02  0.50460968E+00  0.36944417E+00  0.50000000E+00         1         1         1
       525  0.24517680E+03  0.69000000E+03 -0.10500000E+03  0.38328203E+02  0.51768026E+00  0.00000000E+00  0.50000000E+00         1         1         1
       575  0.24557938E+03  0.68000000E+03 -0.10500000E+03  0.11520540E+03  0.55793837E+00  0.00000000E+00  0.50000000E+00         1         1         1
       625  0.24601108E+03  0.67000000E+03 -0.10500000E+03  0.19256054E+03  0.60110760E+00  0.00000000E+00  0.50000000E+00         1         1         1
       675  0.24637169E+03  0.66000000E+03 -0.10500000E+03  0.27063581E+03  0.63716943E+00  0.00000000E+00  0.50000000E+00         1         1         1
       725  0.24651573E+03  0.65000000E+03 -0.10500000E+03  0.34963425E+03  0.65157308E+00  0.00000000E+00  0.50000000E+00         1         1         1
       775  0.24629395E+03  0.64000000E+03 -0.10500000E+03  0.42974670E+03  0.62939492E+00  0.00000000E+00  0.50000000E+00         1         1         1
       825  0.24569898E+03  0.63000000E+03 -0.10500000E+03  0.51078975E+03  0.56989772E+00  0.00000000E+00  0.50000000E+00         1         1         1
       875  0.24489059E+03  0.62000000E+03 -0.10500000E+03  0.59242625E+03  0.48905854E+00  0.00000000E+00  0.50000000E+00         1         1         1
       925  0.24402761E+03  0.61000000E+03 -0.10500000E+03  0.67455461E+03  0.40276110E+00  0.00000000E+00  0.50000000E+00         1         1         1
       975  0.24318032E+03  0.60000000E+03 -0.10500000E+03  0.75726254E+03  0.31803212E+00  0.00000000E+00  0.50000000E+00         1         1         1
      1025  0.24235494E+03  0.59000000E+03 -0.10500000E+03  0.84073553E+03  0.23549373E+00  0.00000000E+00  0.50000000E+00         1         1         1
      1075  0.24149328E+03  0.58000000E+03 -0.10500000E+03  0.92515729E+03  0.14932755E+00  0.00000000E+00  0.50000000E+00         1         1         1
      1125  0.24052634E+03  0.57000000E+03 -0.10500000E+03  0.10107507E+04  0.52634049E-01  0.00000000E+00  0.50000000E+00         1         1         1
      1175  0.24000000E+03  0.56488663E+03 -0.10500000E+03  0.10550448E+04  0.00000000E+00  0.48866279E+00  0.50000000E+00         1         1         1
      1174  0.23947294E+03  0.56000000E+03 -0.10500000E+03  0.10992092E+04  0.94729382E+00  0.00000000E+00  0.50000000E+00         1         1         1
      1224  0.23842493E+03  0.55000000E+03 -0.10500000E+03  0.11894463E+04  0.84249306E+00  0.00000000E+00  0.50000000E+00         1         1         1
      1274  0.23740741E+03  0.54000000E+03 -0.10500000E+03  0.12791416E+04  0.74074120E+00  0.00000000E+00  0.50000000E+00         1         1         1
      1324  0.23638054E+03  0.53000000E+03 -0.10500000E+03  0.13679670E+04  0.63805357E+00  0.00000000E+00  0.50000000E+00         1         1         1
      1374  0.23528405E+03  0.52000000E+03 -0.10500000E+03  0.14558743E+04  0.52840501E+00  0.00000000E+00  0.50000000E+00         1         1         1
      1424  0.23406991E+03  0.51000000E+03 -0.10500000E+03  0.15426632E+04  0.40699055E+00  0.00000000E+00  0.50000000E+00         1         1         1
      1474  0.23276464E+03  0.50000000E+03 -0.10500000E+03  0.16277256E+04  0.27646386E+00  0.00000000E+00  0.50000000E+00         1         1         1
      1524  0.23140198E+03  0.49000000E+03 -0.10500000E+03  0.17105679E+04  0.14019783E+00  0.00000000E+00  0.50000000E+00         1         1         1
      1574  0.23001676E+03  0.48000000E+03 -0.10500000E+03  0.17911403E+04  0.16760326E-02  0.00000000E+00  0.50000000E+00         1         1         1
      1624  0.23000000E+03  0.47987645E+03 -0.10500000E+03  0.17921221E+04  0.00000000E+00  0.98764467E+00  0.50000000E+00         1         1         1
      1623  0.22881907E+03  0.47000000E+03 -0.10500000E+03  0.18625782E+04  0.88190663E+00  0.00000000E+00  0.50000000E+00         1         1         1
      1673  0.22786470E+03  0.46000000E+03 -0.10500000E+03  0.19317307E+04  0.78646980E+00  0.00000000E+00  0.50000000E+00         1         1         1
      1723  0.22720107E+03  0.45000000E+03 -0.10500000E+03  0.19992970E+04  0.72010658E+00  0.00000000E+00  0.50000000E+00         1         1         1
      1773  0.22671960E+03  0.44000000E+03 -0.10500000E+03  0.20656856E+04  0.67196037E+00  0.00000000E+00  0.50000000E+00         1         1         1
      1823  0.22640879E+03  0.43000000E+03 -0.10500000E+03  0.21310935E+04  0.64087868E+00  0.00000000E+00  0.50000000E+00         1         1         1
      1873  0.22631480E+03  0.42000000E+03 -0.10500000E+03  0.21955848E+04  0.63148049E+00  0.00000000E+00  0.50000000E+00         1         1         1
      1923  0.22653474E+03  0.41000000E+03 -0.10500000E+03  0.22594712E+04  0.65347362E+00  0.00000000E+00  0.50000000E+00         1         1         1
      1973  0.22719950E+03  0.40000000E+03 -0.10500000E+03  0.23231538E+04  0.71994993E+00  0.00000000E+00  0.50000000E+00         1         1         1
      2023  0.22829297E+03  0.39000000E+03 -0.10500000E+03  0.23870011E+04  0.82929701E+00  0.00000000E+00  0.50000000E+00         1         1         1
      2073  0.22969093E+03  0.38000000E+03 -0.10500000E+03  0.24514401E+04  0.96909329E+00  0.00000000E+00  0.50000000E+00         1         1         1
      2123  0.23000000E+03  0.37803323E+03 -0.10500000E+03  0.24642135E+04  0.10000000E+01  0.80332266E+00  0.50000000E+00         1         1         1
      2124  0.23130020E+03  0.37000000E+03 -0.10500000E+03  0.25178975E+04  0.13001990E+00  0.00000000E+00  0.50000000E+00         1         1         1
      2174  0.23289504E+03  0.36000000E+03 -0.10500000E+03  0.25846047E+04  0.28950410E+00  0.00000000E+00  0.50000000E+00         1         1         1
      2224  0.23423616E+03  0.35000000E+03 -0.10500000E+03  0.26510101E+04  0.42361630E+00  0.00000000E+00  0.50000000E+00         1         1         1
      2274  0.23507473E+03  0.34000000E+03 -0.10500000E+03  0.27169090E+04  0.50747271E+00  0.00000000E+00  0.50000000E+00         1         1         1
      2324  0.23533681E+03  0.33000000E+03 -0.10500000E+03  0.27819732E+04  0.53368145E+00  0.00000000E+00  0.50000000E+00         1         1         1
      2374  0.23511261E+03  0.32000000E+03 -0.10500000E+03  0.28457535E+04  0.51126137E+00  0.00000000E+00  0.50000000E+00         1         1         1
      2424  0.23450367E+03  0.31000000E+03 -0.10500000E+03  0.29082523E+04  0.45036704E+00  0.00000000E+00  0.50000000E+00         1         1         1
      2474  0.23357605E+03  0.30000000E+03 -0.10500000E+03  0.29699551E+04  0.35760513E+00  0.00000000E+00  0.50000000E+00         1         1         1
      2524  0.23241846E+03  0.29000000E+03 -0.10500000E+03  0.30315163E+04  0.24184601E+00  0.00000000E+00  0.50000000E+00         1         1         1
      2574  0.23114223E+03  0.28000000E+03 -0.10500000E+03  0.30934520E+04  0.11422287E+00  0.00000000E+00  0.50000000E+00         1         1         1
      2624  0.23000000E+03  0.27146191E+03 -0.10500000E+03  0.31467961E+04  0.00000000E+00  0.14619114E+00  0.50000000E+00         1         1         1
      2623  0.22981595E+03  0.27000000E+03 -0.10500000E+03  0.31553493E+04  0.98159484E+00  0.00000000E+00  0.50000000E+00         1         1         1
      2673  0.22842488E+03  0.26000000E+03 -0.10500000E+03  0.32143563E+04  0.84248828E+00  0.00000000E+00  0.50000000E+00         1         1         1
      2723  0.22685900E+03  0.25000000E+03 -0.10500000E+03  0.32744805E+04  0.68589994E+00  0.00000000E+00  0.50000000E+00         1         1         1
      2773  0.22515473E+03  0.24000000E+03 -0.10500000E+03  0.33361335E+04  0.51547297E+00  0.00000000E+00  0.50000000E+00         1         1         1
      2823  0.22335700E+03  0.23000000E+03 -0.10500000E+03  0.33998359E+04  0.33569994E+00  0.00000000E+00  0.50000000E+00         1         1         1
      2873  0.22157749E+03  0.22000000E+03 -0.10500000E+03  0.34661543E+04  0.15774873E+00  0.00000000E+00  0.50000000E+00         1         1         1
      2923  0.22000000E+03  0.21073514E+03 -0.10500000E+03  0.35303205E+04  0.00000000E+00  0.73513726E-01  0.50000000E+00         1         1         1
      2922  0.21987666E+03  0.21000000E+03 -0.10500000E+03  0.35352201E+04  0.98766567E+00  0.00000000E+00  0.50000000E+00         1         1         1
      2972  0.21817366E+03  0.20000000E+03 -0.10500000E+03  0.36039483E+04  0.81736559E+00  0.00000000E+00  0.50000000E+00         1         1         1
      3022  0.21629945E+03  0.19000000E+03 -0.10500000E+03  0.36765799E+04  0.62994505E+00  0.00000000E+00  0.50000000E+00         1         1         1
      3072  0.21422631E+03  0.18000000E+03 -0.10500000E+03  0.37530481E+04  0.42263126E+00  0.00000000E+00  0.50000000E+00         1         1         1
      3122  0.21196583E+03  0.17000000E+03 -0.10500000E+03  0.38331864E+04  0.19658250E+00  0.00000000E+00  0.50000000E+00         1         1         1
      3172  0.21000000E+03  0.16162982E+03 -0.10500000E+03  0.39025198E+04  0.00000000E+00  0.16298152E+00  0.50000000E+00         1         1         1
      3171  0.20962941E+03  0.16000000E+03 -0.10500000E+03  0.39154171E+04  0.96294071E+00  0.00000000E+00  0.50000000E+00         1         1         1
      3221  0.20734201E+03  0.15000000E+03 -0.10500000E+03  0.39954688E+04  0.73420074E+00  0.00000000E+00  0.50000000E+00         1         1         1
      3271  0.20503976E+03  0.14000000E+03 -0.10500000E+03  0.40768434E+04  0.50397595E+00  0.00000000E+00  0.50000000E+00         1         1         1
      3321  0.20280800E+03  0.13000000E+03 -0.10500000E+03  0.41593776E+04  0.28080025E+00  0.00000000E+00  0.50000000E+00         1         1         1
      3371  0.20074559E+03  0.12000000E+03 -0.10500000E+03  0.42429346E+04  0.74559474E-01  0.00000000E+00  0.50000000E+00         1         1         1
      3421  0.20000000E+03  0.11577162E+03 -0.10500000E+03  0.42784903E+04  0.00000000E+00  0.57716202E+00  0.50000000E+00         1         1         1
      3420  0.19903959E+03  0.11000000E+03 -0.10500000E+03  0.43242224E+04  0.90395928E+00  0.00000000E+00  0.50000000E+00         1         1         1
      3470  0.19780034E+03  0.10000000E+03 -0.10500000E+03  0.44034655E+04  0.78003366E+00  0.00000000E+00  0.50000000E+00         1         1         1
      3520  0.19700066E+03  0.90000000E+02 -0.10500000E+03  0.44825682E+04  0.70006558E+00  0.00000000E+00  0.50000000E+00         1         1         1
      3570  0.19652992E+03  0.80000000E+02 -0.10500000E+03  0.45613125E+04  0.65299232E+00  0.00000000E+00  0.50000000E+00         1         1         1
      3620  0.19628034E+03  0.70000000E+02 -0.10500000E+03  0.46393884E+04  0.62803352E+00  0.00000000E+00  0.50000000E+00         1         1         1
      3670  0.19618408E+03  0.60000000E+02 -0.10500000E+03  0.47166523E+04  0.61840840E+00  0.00000000E+00  0.50000000E+00         1         1         1
      3720  0.19620396E+03  0.50000000E+02 -0.10500000E+03  0.47932388E+04  0.62039622E+00  0.00000000E+00  0.50000000E+00         1         1         1
      3770  0.19631128E+03  0.40000000E+02 -0.10500000E+03  0.48692602E+04  0.63112799E+00  0.00000000E+00  0.50000000E+00         1         1         1
      3820  0.19646419E+03  0.30000000E+02 -0.10500000E+03  0.49447126E+04  0.64641891E+00  0.00000000E+00  0.50000000E+00         1         1         1
      3870  0.19661393E+03  0.20000000E+02 -0.10500000E+03  0.50197936E+04  0.66139304E+00  0.00000000E+00  0.50000000E+00         1         1         1
      3920  0.19671250E+03  0.10000000E+02 -0.10500000E+03  0.50948352E+04  0.67125031E+00  0.00000000E+00  0.50000000E+00         1         1         1
      3970  0.19671250E+03  0.10000000E+02 -0.10500000E+03  0.50948352E+04  0.67125031E+00  0.10000000E+01  0.50000000E+00         1         1         1
